14
claisen_gs
  C      2.533366    0.354528   -0.000003
  C      1.645119   -0.643361   -0.000007
  O      0.289757   -0.572633   -0.000001
  C     -0.300955    0.716222   -0.000005
  C     -1.797864    0.595382   -0.000005
  C     -2.478428   -0.549716   -0.000009
  H      3.589823    0.107677   -0.000008
  H      2.263112    1.404966    0.000008
  H      1.954434   -1.685673   -0.000016
  H      0.038878    1.281578   -0.884124
  H      0.038876    1.281582    0.884111
  H     -2.323822    1.550451    0.000000
  H     -3.565344   -0.560946   -0.000007
  H     -1.969201   -1.507986   -0.000015
